<?xml version="1.0" encoding="UTF-8"?>

<!-- generated on 2025-01-31 23:09:16 by Eclipse SUMO netedit Version 1.21.0
<neteditConfiguration xmlns:xsi="http://www.w3.org/2001/XMLSchema-instance" xsi:noNamespaceSchemaLocation="http://sumo.dlr.de/xsd/neteditConfiguration.xsd">

    <input>
        <sumo-net-file value="/mnt/c/Users/Ariel/OneDrive - Technion/semesters/semester9/deep_learning/hw/project/rush_hour/single_intersection/sumo_files/s2.net.xml"/>
    </input>

    <output>
        <output-file value="/mnt/c/Users/Ariel/OneDrive - Technion/semesters/semester9/deep_learning/hw/project/rush_hour/single_intersection/sumo_files/s2.net.xml"/>
    </output>

    <processing>
        <geometry.min-radius.fix.railways value="false"/>
        <geometry.max-grade.fix value="false"/>
        <offset.disable-normalization value="true"/>
        <lefthand value="0"/>
    </processing>

    <junctions>
        <no-turnarounds value="true"/>
        <junctions.corner-detail value="5"/>
        <junctions.limit-turn-speed value="5.50"/>
        <rectangular-lane-cut value="0"/>
    </junctions>

    <pedestrian>
        <walkingareas value="0"/>
    </pedestrian>

</neteditConfiguration>
-->

<net version="1.20" junctionCornerDetail="5" limitTurnSpeed="5.50" xmlns:xsi="http://www.w3.org/2001/XMLSchema-instance" xsi:noNamespaceSchemaLocation="http://sumo.dlr.de/xsd/net_file.xsd">

    <location netOffset="0.00,0.00" convBoundary="-100.00,-100.00,100.00,100.00" origBoundary="-10000000000.00,-10000000000.00,10000000000.00,10000000000.00" projParameter="!"/>

    <edge id=":J17_0" function="internal">
        <lane id=":J17_0_0" index="0" speed="13.89" length="14.40" shape="-1.60,7.20 -1.60,-7.20"/>
    </edge>
    <edge id=":J17_1" function="internal">
        <lane id=":J17_1_0" index="0" speed="13.89" length="14.40" shape="7.20,1.60 -7.20,1.60"/>
    </edge>
    <edge id=":J17_2" function="internal">
        <lane id=":J17_2_0" index="0" speed="13.89" length="14.40" shape="1.60,-7.20 1.60,7.20"/>
    </edge>
    <edge id=":J17_3" function="internal">
        <lane id=":J17_3_0" index="0" speed="13.89" length="14.40" shape="-7.20,-1.60 7.20,-1.60"/>
    </edge>

    <edge id="-E6" from="J17" to="J8" priority="-1">
        <lane id="-E6_0" index="0" speed="13.89" length="92.80" shape="1.60,7.20 1.60,100.00"/>
    </edge>
    <edge id="-E7" from="J5" to="J17" priority="-1">
        <lane id="-E7_0" index="0" speed="13.89" length="92.80" shape="1.60,-100.00 1.60,-7.20"/>
    </edge>
    <edge id="-E8" from="J17" to="J18" priority="-1">
        <lane id="-E8_0" index="0" speed="13.89" length="92.80" shape="7.20,-1.60 100.00,-1.60"/>
    </edge>
    <edge id="-E9" from="J7" to="J17" priority="-1">
        <lane id="-E9_0" index="0" speed="13.89" length="92.80" shape="-100.00,-1.60 -7.20,-1.60"/>
    </edge>
    <edge id="E6" from="J8" to="J17" priority="-1">
        <lane id="E6_0" index="0" speed="13.89" length="92.80" shape="-1.60,100.00 -1.60,7.20"/>
    </edge>
    <edge id="E7" from="J17" to="J5" priority="-1">
        <lane id="E7_0" index="0" speed="13.89" length="92.80" shape="-1.60,-7.20 -1.60,-100.00"/>
    </edge>
    <edge id="E8" from="J18" to="J17" priority="-1">
        <lane id="E8_0" index="0" speed="13.89" length="92.80" shape="100.00,1.60 7.20,1.60"/>
    </edge>
    <edge id="E9" from="J17" to="J7" priority="-1">
        <lane id="E9_0" index="0" speed="13.89" length="92.80" shape="-7.20,1.60 -100.00,1.60"/>
    </edge>

    <tlLogic id="J17" type="static" programID="0" offset="0">
        <phase duration="42" state="GrGr"/>
        <phase duration="3"  state="yryr"/>
        <phase duration="42" state="rGrG"/>
        <phase duration="3"  state="ryry"/>
    </tlLogic>

    <junction id="J10" type="dead_end" x="0.00" y="-100.00" incLanes="" intLanes="" shape="0.00,-100.00"/>
    <junction id="J16" type="dead_end" x="-100.00" y="0.00" incLanes="" intLanes="" shape="-100.00,0.00"/>
    <junction id="J17" type="traffic_light" x="0.00" y="0.00" incLanes="E6_0 E8_0 -E7_0 -E9_0" intLanes=":J17_0_0 :J17_1_0 :J17_2_0 :J17_3_0" shape="-3.20,7.20 3.20,7.20 3.64,4.98 4.20,4.20 4.98,3.64 5.98,3.31 7.20,3.20 7.20,-3.20 4.98,-3.64 4.20,-4.20 3.64,-4.98 3.31,-5.98 3.20,-7.20 -3.20,-7.20 -3.64,-4.98 -4.20,-4.20 -4.98,-3.64 -5.98,-3.31 -7.20,-3.20 -7.20,3.20 -4.98,3.64 -4.20,4.20 -3.64,4.98 -3.31,5.98">
        <request index="0" response="0000" foes="1010" cont="0"/>
        <request index="1" response="0101" foes="0101" cont="0"/>
        <request index="2" response="0000" foes="1010" cont="0"/>
        <request index="3" response="0101" foes="0101" cont="0"/>
    </junction>
    <junction id="J18" type="dead_end" x="100.00" y="0.00" incLanes="-E8_0" intLanes="" shape="100.00,0.00 100.00,-3.20 100.00,0.00"/>
    <junction id="J4" type="dead_end" x="0.00" y="100.00" incLanes="" intLanes="" shape="0.00,100.00"/>
    <junction id="J5" type="dead_end" x="0.00" y="-100.00" incLanes="E7_0" intLanes="" shape="0.00,-100.00 -3.20,-100.00 0.00,-100.00"/>
    <junction id="J7" type="dead_end" x="-100.00" y="0.00" incLanes="E9_0" intLanes="" shape="-100.00,0.00 -100.00,3.20 -100.00,0.00"/>
    <junction id="J8" type="dead_end" x="0.00" y="100.00" incLanes="-E6_0" intLanes="" shape="0.00,100.00 3.20,100.00 0.00,100.00"/>

    <connection from="-E7" to="-E6" fromLane="0" toLane="0" via=":J17_2_0" tl="J17" linkIndex="2" dir="s" state="O"/>
    <connection from="-E9" to="-E8" fromLane="0" toLane="0" via=":J17_3_0" tl="J17" linkIndex="3" dir="s" state="o"/>
    <connection from="E6" to="E7" fromLane="0" toLane="0" via=":J17_0_0" tl="J17" linkIndex="0" dir="s" state="O"/>
    <connection from="E8" to="E9" fromLane="0" toLane="0" via=":J17_1_0" tl="J17" linkIndex="1" dir="s" state="o"/>

    <connection from=":J17_0" to="E7" fromLane="0" toLane="0" dir="s" state="M"/>
    <connection from=":J17_1" to="E9" fromLane="0" toLane="0" dir="s" state="M"/>
    <connection from=":J17_2" to="-E6" fromLane="0" toLane="0" dir="s" state="M"/>
    <connection from=":J17_3" to="-E8" fromLane="0" toLane="0" dir="s" state="M"/>

</net>
