<routes>
    <route id="E7_E6" edges="-E7 -E6"/>
    <route id="E9_E8" edges="-E9 -E8"/>
    <route id="E6_E7" edges="E6 E7"/>
    <route id="E8_E9" edges="E8 E9"/>

    <vehicle id="0" route="E9_E8" depart="0.0" departLane="random" departSpeed="max" />
    <vehicle id="1" route="E9_E8" depart="51.6" departLane="random" departSpeed="max" />
    <vehicle id="2" route="E7_E6" depart="55.0" departLane="random" departSpeed="max" />
    <vehicle id="3" route="E8_E9" depart="60.8" departLane="random" departSpeed="max" />
    <vehicle id="4" route="E7_E6" depart="79.6" departLane="random" departSpeed="max" />
    <vehicle id="5" route="E7_E6" depart="84.4" departLane="random" departSpeed="max" />
    <vehicle id="6" route="E6_E7" depart="115.2" departLane="random" departSpeed="max" />
    <vehicle id="7" route="E9_E8" depart="117.1" departLane="random" departSpeed="max" />
    <vehicle id="8" route="E8_E9" depart="121.9" departLane="random" departSpeed="max" />
    <vehicle id="9" route="E6_E7" depart="123.5" departLane="random" departSpeed="max" />
    <vehicle id="10" route="E7_E6" depart="134.0" departLane="random" departSpeed="max" />
    <vehicle id="11" route="E9_E8" depart="147.4" departLane="random" departSpeed="max" />
    <vehicle id="12" route="E6_E7" depart="150.5" departLane="random" departSpeed="max" />
    <vehicle id="13" route="E9_E8" depart="156.1" departLane="random" departSpeed="max" />
    <vehicle id="14" route="E6_E7" depart="161.7" departLane="random" departSpeed="max" />
    <vehicle id="15" route="E9_E8" depart="167.8" departLane="random" departSpeed="max" />
    <vehicle id="16" route="E7_E6" depart="173.4" departLane="random" departSpeed="max" />
    <vehicle id="17" route="E8_E9" depart="186.5" departLane="random" departSpeed="max" />
    <vehicle id="18" route="E7_E6" depart="195.1" departLane="random" departSpeed="max" />
    <vehicle id="19" route="E8_E9" depart="198.9" departLane="random" departSpeed="max" />
    <vehicle id="20" route="E9_E8" depart="210.0" departLane="random" departSpeed="max" />
    <vehicle id="21" route="E6_E7" depart="212.2" departLane="random" departSpeed="max" />
    <vehicle id="22" route="E7_E6" depart="215.4" departLane="random" departSpeed="max" />
    <vehicle id="23" route="E8_E9" depart="219.4" departLane="random" departSpeed="max" />
    <vehicle id="24" route="E7_E6" depart="224.8" departLane="random" departSpeed="max" />
    <vehicle id="25" route="E8_E9" depart="224.9" departLane="random" departSpeed="max" />
    <vehicle id="26" route="E7_E6" depart="229.7" departLane="random" departSpeed="max" />
    <vehicle id="27" route="E8_E9" depart="232.0" departLane="random" departSpeed="max" />
    <vehicle id="28" route="E8_E9" depart="233.8" departLane="random" departSpeed="max" />
    <vehicle id="29" route="E9_E8" depart="235.2" departLane="random" departSpeed="max" />
    <vehicle id="30" route="E8_E9" depart="237.3" departLane="random" departSpeed="max" />
    <vehicle id="31" route="E9_E8" depart="240.1" departLane="random" departSpeed="max" />
    <vehicle id="32" route="E8_E9" depart="241.3" departLane="random" departSpeed="max" />
    <vehicle id="33" route="E6_E7" depart="241.8" departLane="random" departSpeed="max" />
    <vehicle id="34" route="E6_E7" depart="242.1" departLane="random" departSpeed="max" />
    <vehicle id="35" route="E6_E7" depart="242.4" departLane="random" departSpeed="max" />
    <vehicle id="36" route="E8_E9" depart="251.0" departLane="random" departSpeed="max" />
    <vehicle id="37" route="E9_E8" depart="251.9" departLane="random" departSpeed="max" />
    <vehicle id="38" route="E9_E8" depart="259.0" departLane="random" departSpeed="max" />
    <vehicle id="39" route="E8_E9" depart="261.3" departLane="random" departSpeed="max" />
    <vehicle id="40" route="E6_E7" depart="262.4" departLane="random" departSpeed="max" />
    <vehicle id="41" route="E6_E7" depart="262.6" departLane="random" departSpeed="max" />
    <vehicle id="42" route="E9_E8" depart="263.5" departLane="random" departSpeed="max" />
    <vehicle id="43" route="E6_E7" depart="270.7" departLane="random" departSpeed="max" />
    <vehicle id="44" route="E7_E6" depart="270.7" departLane="random" departSpeed="max" />
    <vehicle id="45" route="E9_E8" depart="270.7" departLane="random" departSpeed="max" />
    <vehicle id="46" route="E6_E7" depart="271.8" departLane="random" departSpeed="max" />
    <vehicle id="47" route="E9_E8" depart="272.5" departLane="random" departSpeed="max" />
    <vehicle id="48" route="E7_E6" depart="276.8" departLane="random" departSpeed="max" />
    <vehicle id="49" route="E9_E8" depart="282.7" departLane="random" departSpeed="max" />
    <vehicle id="50" route="E9_E8" depart="285.5" departLane="random" departSpeed="max" />
    <vehicle id="51" route="E9_E8" depart="291.0" departLane="random" departSpeed="max" />
    <vehicle id="52" route="E9_E8" depart="295.5" departLane="random" departSpeed="max" />
    <vehicle id="53" route="E7_E6" depart="298.3" departLane="random" departSpeed="max" />
    <vehicle id="54" route="E8_E9" depart="300.6" departLane="random" departSpeed="max" />
    <vehicle id="55" route="E9_E8" depart="308.4" departLane="random" departSpeed="max" />
    <vehicle id="56" route="E9_E8" depart="310.9" departLane="random" departSpeed="max" />
    <vehicle id="57" route="E6_E7" depart="311.5" departLane="random" departSpeed="max" />
    <vehicle id="58" route="E9_E8" depart="312.1" departLane="random" departSpeed="max" />
    <vehicle id="59" route="E6_E7" depart="313.9" departLane="random" departSpeed="max" />
    <vehicle id="60" route="E8_E9" depart="321.4" departLane="random" departSpeed="max" />
    <vehicle id="61" route="E7_E6" depart="324.6" departLane="random" departSpeed="max" />
    <vehicle id="62" route="E7_E6" depart="326.1" departLane="random" departSpeed="max" />
    <vehicle id="63" route="E8_E9" depart="330.2" departLane="random" departSpeed="max" />
    <vehicle id="64" route="E7_E6" depart="332.6" departLane="random" departSpeed="max" />
    <vehicle id="65" route="E8_E9" depart="337.0" departLane="random" departSpeed="max" />
    <vehicle id="66" route="E8_E9" depart="339.3" departLane="random" departSpeed="max" />
    <vehicle id="67" route="E8_E9" depart="340.5" departLane="random" departSpeed="max" />
    <vehicle id="68" route="E7_E6" depart="341.1" departLane="random" departSpeed="max" />
    <vehicle id="69" route="E6_E7" depart="341.4" departLane="random" departSpeed="max" />
    <vehicle id="70" route="E8_E9" depart="343.0" departLane="random" departSpeed="max" />
    <vehicle id="71" route="E9_E8" depart="344.6" departLane="random" departSpeed="max" />
    <vehicle id="72" route="E7_E6" depart="345.2" departLane="random" departSpeed="max" />
    <vehicle id="73" route="E8_E9" depart="345.2" departLane="random" departSpeed="max" />
    <vehicle id="74" route="E8_E9" depart="347.0" departLane="random" departSpeed="max" />
    <vehicle id="75" route="E9_E8" depart="362.1" departLane="random" departSpeed="max" />
    <vehicle id="76" route="E6_E7" depart="364.2" departLane="random" departSpeed="max" />
    <vehicle id="77" route="E6_E7" depart="367.8" departLane="random" departSpeed="max" />
    <vehicle id="78" route="E6_E7" depart="376.5" departLane="random" departSpeed="max" />
    <vehicle id="79" route="E8_E9" depart="381.0" departLane="random" departSpeed="max" />
    <vehicle id="80" route="E8_E9" depart="392.3" departLane="random" departSpeed="max" />
    <vehicle id="81" route="E8_E9" depart="395.9" departLane="random" departSpeed="max" />
    <vehicle id="82" route="E7_E6" depart="401.6" departLane="random" departSpeed="max" />
    <vehicle id="83" route="E9_E8" depart="402.7" departLane="random" departSpeed="max" />
    <vehicle id="84" route="E8_E9" depart="402.8" departLane="random" departSpeed="max" />
    <vehicle id="85" route="E9_E8" depart="414.4" departLane="random" departSpeed="max" />
    <vehicle id="86" route="E9_E8" depart="416.4" departLane="random" departSpeed="max" />
    <vehicle id="87" route="E6_E7" depart="421.1" departLane="random" departSpeed="max" />
    <vehicle id="88" route="E7_E6" depart="421.9" departLane="random" departSpeed="max" />
    <vehicle id="89" route="E8_E9" depart="425.4" departLane="random" departSpeed="max" />
    <vehicle id="90" route="E6_E7" depart="428.9" departLane="random" departSpeed="max" />
    <vehicle id="91" route="E6_E7" depart="432.1" departLane="random" departSpeed="max" />
    <vehicle id="92" route="E8_E9" depart="469.5" departLane="random" departSpeed="max" />
    <vehicle id="93" route="E9_E8" depart="483.2" departLane="random" departSpeed="max" />
    <vehicle id="94" route="E6_E7" depart="484.7" departLane="random" departSpeed="max" />
    <vehicle id="95" route="E9_E8" depart="490.4" departLane="random" departSpeed="max" />
    <vehicle id="96" route="E7_E6" depart="492.3" departLane="random" departSpeed="max" />
    <vehicle id="97" route="E9_E8" depart="495.6" departLane="random" departSpeed="max" />
    <vehicle id="98" route="E7_E6" depart="497.4" departLane="random" departSpeed="max" />
    <vehicle id="99" route="E9_E8" depart="508.1" departLane="random" departSpeed="max" />
    <vehicle id="100" route="E6_E7" depart="531.5" departLane="random" departSpeed="max" />
    <vehicle id="101" route="E6_E7" depart="539.3" departLane="random" departSpeed="max" />
    <vehicle id="102" route="E7_E6" depart="544.9" departLane="random" departSpeed="max" />
    <vehicle id="103" route="E8_E9" depart="548.5" departLane="random" departSpeed="max" />
    <vehicle id="104" route="E7_E6" depart="558.5" departLane="random" departSpeed="max" />
    <vehicle id="105" route="E7_E6" depart="559.8" departLane="random" departSpeed="max" />
    <vehicle id="106" route="E9_E8" depart="568.0" departLane="random" departSpeed="max" />
    <vehicle id="107" route="E9_E8" depart="575.4" departLane="random" departSpeed="max" />
    <vehicle id="108" route="E7_E6" depart="576.3" departLane="random" departSpeed="max" />
    <vehicle id="109" route="E6_E7" depart="576.9" departLane="random" departSpeed="max" />
    <vehicle id="110" route="E9_E8" depart="580.9" departLane="random" departSpeed="max" />
    <vehicle id="111" route="E8_E9" depart="583.1" departLane="random" departSpeed="max" />
    <vehicle id="112" route="E9_E8" depart="585.7" departLane="random" departSpeed="max" />
    <vehicle id="113" route="E9_E8" depart="592.9" departLane="random" departSpeed="max" />
    <vehicle id="114" route="E8_E9" depart="593.8" departLane="random" departSpeed="max" />
    <vehicle id="115" route="E7_E6" depart="600.9" departLane="random" departSpeed="max" />
    <vehicle id="116" route="E8_E9" depart="602.5" departLane="random" departSpeed="max" />
    <vehicle id="117" route="E7_E6" depart="608.1" departLane="random" departSpeed="max" />
    <vehicle id="118" route="E7_E6" depart="609.1" departLane="random" departSpeed="max" />
    <vehicle id="119" route="E7_E6" depart="611.0" departLane="random" departSpeed="max" />
    <vehicle id="120" route="E8_E9" depart="611.6" departLane="random" departSpeed="max" />
    <vehicle id="121" route="E7_E6" depart="614.3" departLane="random" departSpeed="max" />
    <vehicle id="122" route="E6_E7" depart="615.3" departLane="random" departSpeed="max" />
    <vehicle id="123" route="E8_E9" depart="617.9" departLane="random" departSpeed="max" />
    <vehicle id="124" route="E6_E7" depart="618.4" departLane="random" departSpeed="max" />
    <vehicle id="125" route="E7_E6" depart="619.8" departLane="random" departSpeed="max" />
    <vehicle id="126" route="E9_E8" depart="621.7" departLane="random" departSpeed="max" />
    <vehicle id="127" route="E7_E6" depart="624.6" departLane="random" departSpeed="max" />
    <vehicle id="128" route="E6_E7" depart="628.6" departLane="random" departSpeed="max" />
    <vehicle id="129" route="E6_E7" depart="632.0" departLane="random" departSpeed="max" />
    <vehicle id="130" route="E8_E9" depart="643.4" departLane="random" departSpeed="max" />
    <vehicle id="131" route="E9_E8" depart="649.7" departLane="random" departSpeed="max" />
    <vehicle id="132" route="E8_E9" depart="655.3" departLane="random" departSpeed="max" />
    <vehicle id="133" route="E6_E7" depart="657.9" departLane="random" departSpeed="max" />
    <vehicle id="134" route="E7_E6" depart="665.7" departLane="random" departSpeed="max" />
    <vehicle id="135" route="E9_E8" depart="667.8" departLane="random" departSpeed="max" />
    <vehicle id="136" route="E7_E6" depart="673.5" departLane="random" departSpeed="max" />
    <vehicle id="137" route="E7_E6" depart="675.5" departLane="random" departSpeed="max" />
    <vehicle id="138" route="E9_E8" depart="677.7" departLane="random" departSpeed="max" />
    <vehicle id="139" route="E8_E9" depart="680.8" departLane="random" departSpeed="max" />
    <vehicle id="140" route="E7_E6" depart="683.9" departLane="random" departSpeed="max" />
    <vehicle id="141" route="E6_E7" depart="692.3" departLane="random" departSpeed="max" />
    <vehicle id="142" route="E7_E6" depart="692.6" departLane="random" departSpeed="max" />
    <vehicle id="143" route="E9_E8" depart="692.7" departLane="random" departSpeed="max" />
    <vehicle id="144" route="E9_E8" depart="696.5" departLane="random" departSpeed="max" />
    <vehicle id="145" route="E9_E8" depart="697.3" departLane="random" departSpeed="max" />
    <vehicle id="146" route="E8_E9" depart="701.3" departLane="random" departSpeed="max" />
    <vehicle id="147" route="E7_E6" depart="705.8" departLane="random" departSpeed="max" />
    <vehicle id="148" route="E8_E9" depart="706.0" departLane="random" departSpeed="max" />
    <vehicle id="149" route="E8_E9" depart="706.9" departLane="random" departSpeed="max" />
    <vehicle id="150" route="E9_E8" depart="710.0" departLane="random" departSpeed="max" />
    <vehicle id="151" route="E9_E8" depart="715.4" departLane="random" departSpeed="max" />
    <vehicle id="152" route="E8_E9" depart="717.3" departLane="random" departSpeed="max" />
    <vehicle id="153" route="E7_E6" depart="717.5" departLane="random" departSpeed="max" />
    <vehicle id="154" route="E6_E7" depart="718.5" departLane="random" departSpeed="max" />
    <vehicle id="155" route="E8_E9" depart="721.4" departLane="random" departSpeed="max" />
    <vehicle id="156" route="E7_E6" depart="722.7" departLane="random" departSpeed="max" />
    <vehicle id="157" route="E9_E8" depart="723.2" departLane="random" departSpeed="max" />
    <vehicle id="158" route="E9_E8" depart="725.0" departLane="random" departSpeed="max" />
    <vehicle id="159" route="E7_E6" depart="725.8" departLane="random" departSpeed="max" />
    <vehicle id="160" route="E6_E7" depart="726.0" departLane="random" departSpeed="max" />
    <vehicle id="161" route="E9_E8" depart="727.7" departLane="random" departSpeed="max" />
    <vehicle id="162" route="E9_E8" depart="729.3" departLane="random" departSpeed="max" />
    <vehicle id="163" route="E9_E8" depart="729.7" departLane="random" departSpeed="max" />
    <vehicle id="164" route="E7_E6" depart="730.2" departLane="random" departSpeed="max" />
    <vehicle id="165" route="E8_E9" depart="734.1" departLane="random" departSpeed="max" />
    <vehicle id="166" route="E9_E8" depart="734.6" departLane="random" departSpeed="max" />
    <vehicle id="167" route="E8_E9" depart="738.5" departLane="random" departSpeed="max" />
    <vehicle id="168" route="E6_E7" depart="740.4" departLane="random" departSpeed="max" />
    <vehicle id="169" route="E9_E8" depart="741.3" departLane="random" departSpeed="max" />
    <vehicle id="170" route="E9_E8" depart="747.3" departLane="random" departSpeed="max" />
    <vehicle id="171" route="E6_E7" depart="747.4" departLane="random" departSpeed="max" />
    <vehicle id="172" route="E9_E8" depart="747.4" departLane="random" departSpeed="max" />
    <vehicle id="173" route="E8_E9" depart="748.2" departLane="random" departSpeed="max" />
    <vehicle id="174" route="E7_E6" depart="752.2" departLane="random" departSpeed="max" />
    <vehicle id="175" route="E8_E9" depart="758.7" departLane="random" departSpeed="max" />
    <vehicle id="176" route="E7_E6" depart="762.6" departLane="random" departSpeed="max" />
    <vehicle id="177" route="E7_E6" depart="765.7" departLane="random" departSpeed="max" />
    <vehicle id="178" route="E8_E9" depart="771.4" departLane="random" departSpeed="max" />
    <vehicle id="179" route="E8_E9" depart="775.2" departLane="random" departSpeed="max" />
    <vehicle id="180" route="E8_E9" depart="778.2" departLane="random" departSpeed="max" />
    <vehicle id="181" route="E8_E9" depart="778.7" departLane="random" departSpeed="max" />
    <vehicle id="182" route="E6_E7" depart="779.1" departLane="random" departSpeed="max" />
    <vehicle id="183" route="E9_E8" depart="781.4" departLane="random" departSpeed="max" />
    <vehicle id="184" route="E7_E6" depart="782.2" departLane="random" departSpeed="max" />
    <vehicle id="185" route="E8_E9" depart="782.7" departLane="random" departSpeed="max" />
    <vehicle id="186" route="E8_E9" depart="785.6" departLane="random" departSpeed="max" />
    <vehicle id="187" route="E8_E9" depart="796.3" departLane="random" departSpeed="max" />
    <vehicle id="188" route="E6_E7" depart="814.3" departLane="random" departSpeed="max" />
    <vehicle id="189" route="E8_E9" depart="815.9" departLane="random" departSpeed="max" />
    <vehicle id="190" route="E8_E9" depart="830.7" departLane="random" departSpeed="max" />
    <vehicle id="191" route="E8_E9" depart="840.3" departLane="random" departSpeed="max" />
    <vehicle id="192" route="E9_E8" depart="845.4" departLane="random" departSpeed="max" />
    <vehicle id="193" route="E6_E7" depart="855.0" departLane="random" departSpeed="max" />
    <vehicle id="194" route="E8_E9" depart="886.6" departLane="random" departSpeed="max" />
    <vehicle id="195" route="E7_E6" depart="888.6" departLane="random" departSpeed="max" />
    <vehicle id="196" route="E7_E6" depart="889.7" departLane="random" departSpeed="max" />
    <vehicle id="197" route="E7_E6" depart="919.0" departLane="random" departSpeed="max" />
    <vehicle id="198" route="E6_E7" depart="946.3" departLane="random" departSpeed="max" />
    <vehicle id="199" route="E6_E7" depart="972.0" departLane="random" departSpeed="max" />
</routes>
