<?xml version="1.0" encoding="UTF-8"?>

<!-- generated on 2025-01-16 20:43:45 by Eclipse SUMO sumo Version 1.21.0
-->

<sumoConfiguration xmlns:xsi="http://www.w3.org/2001/XMLSchema-instance" xsi:noNamespaceSchemaLocation="http://sumo.dlr.de/xsd/sumoConfiguration.xsd">

    <input>
        <net-file value="s2.net.xml"/>
        <route-files value="s2.rou.xml"/>
    </input>

</sumoConfiguration>
